@<TRIPOS>MOLECULE
cmp_ligand
58   61    1
SMALL
USER_CHARGES


@<TRIPOS>ATOM
      1 C1         21.3650   40.5910    4.7790 C.ar      1 UNK         0.0000 
      2 C2         21.4600   41.5430    3.6650 C.ar      1 UNK         0.0000 
      3 N1         22.6600   41.5030    2.9770 N.pl3     1 UNK         0.0000 
      4 C3         23.7100   40.6370    3.2960 C.ar      1 UNK         0.0000 
      5 N2         23.5890   39.8300    4.2970 N.2       1 UNK         0.0000 
      6 C4         22.4360   39.7900    5.0230 C.ar      1 UNK         0.0000 
      7 N3         22.4790   38.8870    6.0440 N.pl3     1 UNK         0.0000 
      8 O1         20.5380   42.3150    3.3900 O.2       1 UNK         0.0000 
      9 C5         22.7890   42.5240    1.9180 C.3       1 UNK         0.0000 
     10 S1         19.9320   40.5770    5.8890 S.3       1 UNK         0.0000 
     11 C6         18.4410   40.5360    4.9050 C.ar      1 UNK         0.0000 
     12 N4         24.9380   40.6240    2.5470 N.pl3     1 UNK         0.0000 
     13 C7         26.2470   40.3640    3.1560 C.3       1 UNK         0.0000 
     14 C8         27.2270   41.4770    2.7300 C.3       1 UNK         0.0000 
     15 C9         27.3670   41.6300    1.1830 C.3       1 UNK         0.0000 
     16 C10        25.9540   41.6070    0.5170 C.3       1 UNK         0.0000 
     17 C11        25.0090   40.5250    1.0840 C.3       1 UNK         0.0000 
     18 C12        17.1890   40.8670    5.4660 C.ar      1 UNK         0.0000 
     19 N5         16.0550   40.9370    4.7120 N.ar      1 UNK         0.0000 
     20 C13        16.1350   40.6510    3.3910 C.ar      1 UNK         0.0000 
     21 C14        17.3170   40.2440    2.7810 C.ar      1 UNK         0.0000 
     22 C15        18.4730   40.1730    3.5560 C.ar      1 UNK         0.0000 
     23 C16        28.0500   42.9600    0.8490 C.3       1 UNK         0.0000 
     24 O2         28.4680   42.7610   -0.4920 O.3       1 UNK         0.0000 
     25 C17        29.0900   41.4840   -0.5670 C.3       1 UNK         0.0000 
     26 C18        28.3300   40.6360    0.4880 C.3       1 UNK         0.0000 
     27 N6         29.1960   39.7310    1.3780 N.4       1 UNK         0.0000 
     28 C19        30.6060   41.6890   -0.3660 C.3       1 UNK         0.0000 
     29 C20        16.9980   41.1470    6.9630 C.3       1 UNK         0.0000 
     30 F1         17.6620   42.2460    7.3160 F         1 UNK         0.0000 
     31 F2         15.7150   41.3240    7.2930 F         1 UNK         0.0000 
     32 F3         17.4590   40.1190    7.6760 F         1 UNK         0.0000 
     33 H31        23.3010   38.3160    6.1800 H         1 UNK         0.0000 
     34 H32        21.6880   38.7880    6.6640 H         1 UNK         0.0000 
     35 H51        23.7590   42.4210    1.4300 H         1 UNK         0.0000 
     36 H52        21.9970   42.3870    1.1820 H         1 UNK         0.0000 
     37 H53        22.7090   43.5180    2.3580 H         1 UNK         0.0000 
     38 H71        26.6220   39.4000    2.8140 H         1 UNK         0.0000 
     39 H72        26.1480   40.3640    4.2420 H         1 UNK         0.0000 
     40 H81        28.2070   41.2820    3.1640 H         1 UNK         0.0000 
     41 H82        26.9060   42.4260    3.1600 H         1 UNK         0.0000 
     42 H101       26.0640   41.4630   -0.5580 H         1 UNK         0.0000 
     43 H102       25.4880   42.5860    0.6240 H         1 UNK         0.0000 
     44 H111       24.0130   40.6570    0.6620 H         1 UNK         0.0000 
     45 H112       25.3780   39.5380    0.8040 H         1 UNK         0.0000 
     46 H13        15.2580   40.7360    2.7660 H         1 UNK         0.0000 
     47 H14        17.3250   39.9930    1.7310 H         1 UNK         0.0000 
     48 H15        19.3960   39.8350    3.1090 H         1 UNK         0.0000 
     49 H161       28.9270   43.0830    1.4840 H         1 UNK         0.0000 
     50 H162       27.3110   43.7610    0.8790 H         1 UNK         0.0000 
     51 H17        28.9160   41.0610   -1.5560 H         1 UNK         0.0000 
     52 H18        27.6930   39.9620   -0.0830 H         1 UNK         0.0000 
     53 H61        29.7720   39.1380    0.7970 H         1 UNK         0.0000 
     54 H62        29.7870   40.3010    1.9660 H         1 UNK         0.0000 
     55 H63        28.5990   39.1570    1.9560 H         1 UNK         0.0000 
     56 H191       31.1140   40.7260   -0.4180 H         1 UNK         0.0000 
     57 H192       30.9910   42.3450   -1.1470 H         1 UNK         0.0000 
     58 H193       30.7860   42.1420    0.6090 H         1 UNK         0.0000 
@<TRIPOS>BOND
     1    1    2 ar   
     2    1    6 ar   
     3    1   10 1    
     4    2    3 ar   
     5    2    8 2    
     6    3    4 ar   
     7    3    9 1    
     8    4    5 ar   
     9    4   12 1    
    10    5    6 ar   
    11    6    7 1    
    12    7   33 1    
    13    7   34 1    
    14    9   35 1    
    15    9   36 1    
    16    9   37 1    
    17   10   11 1    
    18   11   18 ar   
    19   11   22 ar   
    20   12   13 1    
    21   12   17 1    
    22   13   14 1    
    23   13   38 1    
    24   13   39 1    
    25   14   15 1    
    26   14   40 1    
    27   14   41 1    
    28   15   16 1    
    29   15   23 1    
    30   15   26 1    
    31   16   17 1    
    32   16   42 1    
    33   16   43 1    
    34   17   44 1    
    35   17   45 1    
    36   18   29 1    
    37   18   19 ar   
    38   19   20 ar   
    39   20   21 ar   
    40   20   46 1    
    41   21   22 ar   
    42   21   47 1    
    43   22   48 1    
    44   23   24 1    
    45   23   49 1    
    46   23   50 1    
    47   24   25 1    
    48   25   26 1    
    49   25   28 1    
    50   25   51 1    
    51   26   27 1    
    52   26   52 1    
    53   27   53 1    
    54   27   54 1    
    55   27   55 1    
    56   28   56 1    
    57   28   57 1    
    58   28   58 1    
    59   29   30 1    
    60   29   31 1    
    61   29   32 1    
@<TRIPOS>SUBSTRUCTURE
     1 UNK         1 GROUP             0       ****    0 ROOT    
