@<TRIPOS>MOLECULE
cmp_ligand
41   43    1
SMALL
USER_CHARGES


@<TRIPOS>ATOM
      1 C1         21.1280   40.6610    4.4670 C.ar      1 UNK         0.0000 
      2 N1         21.2520   41.7280    3.6350 N.ar      1 UNK         0.0000 
      3 C2         22.4700   41.9480    3.0780 C.ar      1 UNK         0.0000 
      4 C3         23.5680   41.1010    3.3110 C.ar      1 UNK         0.0000 
      5 N2         23.4240   40.0290    4.1450 N.ar      1 UNK         0.0000 
      6 C4         22.2150   39.8190    4.7270 C.ar      1 UNK         0.0000 
      7 C5         19.7980   40.4860    5.0980 C.ar      1 UNK         0.0000 
      8 N3         24.8230   41.3130    2.7390 N.pl3     1 UNK         0.0000 
      9 C6         25.1860   42.4500    1.8810 C.3       1 UNK         0.0000 
     10 C7         26.4470   43.1400    2.4370 C.3       1 UNK         0.0000 
     11 C8         27.6480   42.1700    2.5200 C.3       1 UNK         0.0000 
     12 C9         27.2340   40.8450    3.2030 C.3       1 UNK         0.0000 
     13 C10        25.8950   40.3030    2.6560 C.3       1 UNK         0.0000 
     14 C11        18.6840   40.2010    4.3010 C.ar      1 UNK         0.0000 
     15 C12        17.4180   40.0710    4.8680 C.ar      1 UNK         0.0000 
     16 C13        17.2520   40.2110    6.2430 C.ar      1 UNK         0.0000 
     17 C14        18.3510   40.4940    7.0510 C.ar      1 UNK         0.0000 
     18 C15        19.6220   40.6340    6.4830 C.ar      1 UNK         0.0000 
     19 CL1        20.9590   41.0680    7.4890 Cl        1 UNK         0.0000 
     20 CL2        18.1170   40.7040    8.7460 Cl        1 UNK         0.0000 
     21 C16        28.3150   41.9520    1.1460 C.3       1 UNK         0.0000 
     22 N4         28.6990   42.8300    3.4240 N.4       1 UNK         0.0000 
     23 H2         22.6200   42.7980    2.4290 H         1 UNK         0.0000 
     24 H4         22.1020   38.9830    5.4010 H         1 UNK         0.0000 
     25 H61        24.3620   43.1640    1.8570 H         1 UNK         0.0000 
     26 H62        25.3830   42.0940    0.8700 H         1 UNK         0.0000 
     27 H71        26.2340   43.5390    3.4290 H         1 UNK         0.0000 
     28 H72        26.7070   43.9870    1.8010 H         1 UNK         0.0000 
     29 H91        27.1490   41.0030    4.2780 H         1 UNK         0.0000 
     30 H92        28.0150   40.1000    3.0530 H         1 UNK         0.0000 
     31 H101       26.0250   39.9970    1.6180 H         1 UNK         0.0000 
     32 H102       25.6040   39.4180    3.2210 H         1 UNK         0.0000 
     33 H11        18.7990   40.0810    3.2340 H         1 UNK         0.0000 
     34 H12        16.5650   39.8610    4.2400 H         1 UNK         0.0000 
     35 H13        16.2720   40.1000    6.6830 H         1 UNK         0.0000 
     36 H161       29.1540   41.2630    1.2540 H         1 UNK         0.0000 
     37 H162       27.5880   41.5310    0.4510 H         1 UNK         0.0000 
     38 H163       28.6760   42.9050    0.7610 H         1 UNK         0.0000 
     39 H41        29.5030   42.2250    3.5040 H         1 UNK         0.0000 
     40 H42        28.9810   43.7130    3.0240 H         1 UNK         0.0000 
     41 H43        28.3040   42.9870    4.3400 H         1 UNK         0.0000 
@<TRIPOS>BOND
     1    1    2 ar   
     2    1    6 ar   
     3    1    7 1    
     4    2    3 ar   
     5    3    4 ar   
     6    3   23 1    
     7    4    5 ar   
     8    4    8 1    
     9    5    6 ar   
    10    6   24 1    
    11    7   14 ar   
    12    7   18 ar   
    13    8    9 1    
    14    8   13 1    
    15    9   10 1    
    16    9   25 1    
    17    9   26 1    
    18   10   11 1    
    19   10   27 1    
    20   10   28 1    
    21   11   12 1    
    22   11   21 1    
    23   11   22 1    
    24   12   13 1    
    25   12   29 1    
    26   12   30 1    
    27   13   31 1    
    28   13   32 1    
    29   14   15 ar   
    30   14   33 1    
    31   15   16 ar   
    32   15   34 1    
    33   16   17 ar   
    34   16   35 1    
    35   17   18 ar   
    36   17   20 1    
    37   18   19 1    
    38   21   36 1    
    39   21   37 1    
    40   21   38 1    
    41   22   39 1    
    42   22   40 1    
    43   22   41 1    
@<TRIPOS>SUBSTRUCTURE
     1 UNK         1 GROUP             0       ****    0 ROOT    
