@<TRIPOS>MOLECULE
cmp_ligand
60   64    1
SMALL
USER_CHARGES


@<TRIPOS>ATOM
      1 C1         16.0080   41.1950    4.7790 C.ar      1 UNK         0.0000 
      2 C2         16.0530   40.8610    3.4190 C.ar      1 UNK         0.0000 
      3 C3         17.2190   40.3120    2.8850 C.ar      1 UNK         0.0000 
      4 C4         18.3400   40.1250    3.6920 C.ar      1 UNK         0.0000 
      5 C5         18.2970   40.4870    5.0390 C.ar      1 UNK         0.0000 
      6 C6         17.1210   40.9930    5.5960 C.ar      1 UNK         0.0000 
      7 C7         16.7920   41.4150    7.0000 C.3       1 UNK         0.0000 
      8 C8         15.2740   41.5680    6.9630 C.3       1 UNK         0.0000 
      9 N1         14.9800   41.7760    5.5390 N.am      1 UNK         0.0000 
     10 S1         19.7090   40.3540    6.1040 S.3       1 UNK         0.0000 
     11 C9         21.0990   40.6020    5.0230 C.ar      1 UNK         0.0000 
     12 C10        22.2360   39.7890    5.1070 C.ar      1 UNK         0.0000 
     13 N2         23.3060   39.9980    4.3080 N.ar      1 UNK         0.0000 
     14 C11        23.2770   41.0380    3.4250 C.ar      1 UNK         0.0000 
     15 C12        22.1410   41.8590    3.3610 C.ar      1 UNK         0.0000 
     16 N3         21.0500   41.6390    4.1400 N.ar      1 UNK         0.0000 
     17 N4         24.4170   41.2330    2.6460 N.pl3     1 UNK         0.0000 
     18 C13        24.6370   42.3530    1.7160 C.3       1 UNK         0.0000 
     19 C14        26.0960   42.8730    1.8050 C.3       1 UNK         0.0000 
     20 C15        27.1500   41.7520    1.5520 C.3       1 UNK         0.0000 
     21 C16        26.7850   40.5220    2.4130 C.3       1 UNK         0.0000 
     22 C17        25.3140   40.1240    2.2830 C.3       1 UNK         0.0000 
     23 C18        28.6010   42.1570    1.8330 C.3       1 UNK         0.0000 
     24 C19        29.1960   42.5590    0.4810 C.3       1 UNK         0.0000 
     25 O1         28.0940   42.4700   -0.4180 O.3       1 UNK         0.0000 
     26 C20        27.2510   41.4240    0.0500 C.3       1 UNK         0.0000 
     27 C21        13.9120   42.4820    5.0850 C.2       1 UNK         0.0000 
     28 C22        12.8840   43.0030    6.0940 C.3       1 UNK         0.0000 
     29 O2         13.7290   42.7360    3.8940 O.2       1 UNK         0.0000 
     30 F1         17.3240   42.5900    7.3360 F         1 UNK         0.0000 
     31 F2         17.1210   40.5250    7.9340 F         1 UNK         0.0000 
     32 N5         28.8870   43.0770    3.0280 N.4       1 UNK         0.0000 
     33 N6         22.3380   38.7390    6.0130 N.pl3     1 UNK         0.0000 
     34 H2         15.1900   41.0290    2.7920 H         1 UNK         0.0000 
     35 H3         17.2550   40.0300    1.8430 H         1 UNK         0.0000 
     36 H4         19.2410   39.7000    3.2760 H         1 UNK         0.0000 
     37 H81        14.9880   42.4580    7.5240 H         1 UNK         0.0000 
     38 H82        14.8090   40.6400    7.2940 H         1 UNK         0.0000 
     39 H12        22.1170   42.6960    2.6780 H         1 UNK         0.0000 
     40 H131       23.9480   43.1630    1.9540 H         1 UNK         0.0000 
     41 H132       24.4300   42.0240    0.6970 H         1 UNK         0.0000 
     42 H141       26.2650   43.3130    2.7870 H         1 UNK         0.0000 
     43 H142       26.2400   43.6750    1.0810 H         1 UNK         0.0000 
     44 H161       27.0120   40.7310    3.4590 H         1 UNK         0.0000 
     45 H162       27.4140   39.6790    2.1270 H         1 UNK         0.0000 
     46 H171       25.1110   39.8140    1.2580 H         1 UNK         0.0000 
     47 H172       25.1110   39.2680    2.9280 H         1 UNK         0.0000 
     48 H18        29.1020   41.2220    2.0840 H         1 UNK         0.0000 
     49 H191       29.9570   41.8340    0.1920 H         1 UNK         0.0000 
     50 H192       29.5380   43.5930    0.5310 H         1 UNK         0.0000 
     51 H201       26.2660   41.5270   -0.4060 H         1 UNK         0.0000 
     52 H202       27.7620   40.4690   -0.0750 H         1 UNK         0.0000 
     53 H221       12.0980   43.5430    5.5660 H         1 UNK         0.0000 
     54 H222       12.4470   42.1630    6.6340 H         1 UNK         0.0000 
     55 H223       13.3740   43.6730    6.8000 H         1 UNK         0.0000 
     56 H51        29.8800   43.2550    3.0860 H         1 UNK         0.0000 
     57 H52        28.3950   43.9500    2.9070 H         1 UNK         0.0000 
     58 H53        28.5760   42.6310    3.8790 H         1 UNK         0.0000 
     59 H61        23.1760   38.1760    6.0420 H         1 UNK         0.0000 
     60 H62        21.5730   38.5390    6.6430 H         1 UNK         0.0000 
@<TRIPOS>BOND
     1    1    2 ar   
     2    1    6 ar   
     3    1    9 1    
     4    2    3 ar   
     5    2   34 1    
     6    3    4 ar   
     7    3   35 1    
     8    4    5 ar   
     9    4   36 1    
    10    5    6 ar   
    11    5   10 1    
    12    6    7 1    
    13    7    8 1    
    14    7   30 1    
    15    7   31 1    
    16    8    9 1    
    17    8   37 1    
    18    8   38 1    
    19    9   27 am   BACKBONE|DICT|INTERRES
    20   10   11 1    
    21   11   12 ar   
    22   11   16 ar   
    23   12   13 ar   
    24   12   33 1    
    25   13   14 ar   
    26   14   15 ar   
    27   14   17 1    
    28   15   16 ar   
    29   15   39 1    
    30   17   18 1    
    31   17   22 1    
    32   18   19 1    
    33   18   40 1    
    34   18   41 1    
    35   19   20 1    
    36   19   42 1    
    37   19   43 1    
    38   20   21 1    
    39   20   23 1    
    40   20   26 1    
    41   21   22 1    
    42   21   44 1    
    43   21   45 1    
    44   22   46 1    
    45   22   47 1    
    46   23   24 1    
    47   23   32 1    
    48   23   48 1    
    49   24   25 1    
    50   24   49 1    
    51   24   50 1    
    52   25   26 1    
    53   26   51 1    
    54   26   52 1    
    55   27   28 1    
    56   27   29 2    
    57   28   53 1    
    58   28   54 1    
    59   28   55 1    
    60   32   56 1    
    61   32   57 1    
    62   32   58 1    
    63   33   59 1    
    64   33   60 1    
@<TRIPOS>SUBSTRUCTURE
     1 UNK         1 GROUP             0       ****    0 ROOT    
