#

@<TRIPOS>MOLECULE
cmp_ligand
 43 45 0 0 0
SMALL
USER_CHARGES

@<TRIPOS>ATOM
      1 C1         21.7040   40.6900    4.3070 C.ar      1 LIG         0.0000
      2 C2         22.1330   41.7300    3.4690 C.ar      1 LIG         0.0000
      3 N1         23.4200   41.8690    3.0540 N.ar      1 LIG         0.0000
      4 C3         24.2860   40.8970    3.4460 C.ar      1 LIG         0.0000
      5 N2         23.9670   39.8380    4.2270 N.ar      1 LIG         0.0000
      6 C4         22.6920   39.7560    4.6680 C.ar      1 LIG         0.0000
      7 C5         20.2930   40.5900    4.7650 C.ar      1 LIG         0.0000
      8 N3         25.6240   40.9890    3.1020 N.pl3     1 LIG         0.0000
      9 N4         22.4200   38.6760    5.4990 N.pl3     1 LIG         0.0000
     10 C6         19.2520   40.4550    3.8400 C.ar      1 LIG         0.0000
     11 C7         17.9330   40.2970    4.2680 C.ar      1 LIG         0.0000
     12 C8         17.6370   40.3100    5.6300 C.ar      1 LIG         0.0000
     13 C9         18.6620   40.4760    6.5620 C.ar      1 LIG         0.0000
     14 C10        19.9830   40.6030    6.1310 C.ar      1 LIG         0.0000
     15 CL1        18.3030   40.5320    8.2470 Cl        1 LIG         0.0000
     16 C11        26.3420   42.2690    2.9910 C.3       1 LIG         0.0000
     17 C12        27.8190   42.0580    3.4090 C.3       1 LIG         0.0000
     18 N5         28.4520   41.0370    2.4510 N.4       1 LIG         0.0000
     19 C13        27.6630   39.7210    2.4010 C.3       1 LIG         0.0000
     20 C14        26.1740   40.0330    2.1290 C.3       1 LIG         0.0000
     21 C15        28.7140   43.2990    3.3540 C.3       1 LIG         0.0000
     22 C16        28.3270   38.8430    1.3300 C.3       1 LIG         0.0000
     23 H2         21.4270   42.4700    3.1220 H         1 LIG         0.0000
     24 H41        23.1540   38.0250    5.7380 H         1 LIG         0.0000
     25 H42        21.4880   38.5420    5.8650 H         1 LIG         0.0000
     26 H6         19.4640   40.4740    2.7820 H         1 LIG         0.0000
     27 H7         17.1430   40.1640    3.5440 H         1 LIG         0.0000
     28 H8         16.6160   40.1930    5.9620 H         1 LIG         0.0000
     29 H10        20.7700   40.7130    6.8620 H         1 LIG         0.0000
     30 H111       25.8790   43.0030    3.6510 H         1 LIG         0.0000
     31 H112       26.3020   42.6190    1.9600 H         1 LIG         0.0000
     32 H12        27.8440   41.6520    4.4200 H         1 LIG         0.0000
     33 H51        29.4010   40.8490    2.7400 H         1 LIG         0.0000
     34 H52        28.5020   41.4340    1.5230 H         1 LIG         0.0000
     35 H13        27.7480   39.2230    3.3670 H         1 LIG         0.0000
     36 H141       26.0670   40.4380    1.1220 H         1 LIG         0.0000
     37 H142       25.5980   39.1080    2.1630 H         1 LIG         0.0000
     38 H151       29.7240   43.0330    3.6670 H         1 LIG         0.0000
     39 H152       28.7400   43.6840    2.3350 H         1 LIG         0.0000
     40 H153       28.3170   44.0630    4.0220 H         1 LIG         0.0000
     41 H161       27.7980   37.8930    1.2600 H         1 LIG         0.0000
     42 H162       28.2890   39.3520    0.3670 H         1 LIG         0.0000
     43 H163       29.3660   38.6600    1.6030 H         1 LIG         0.0000
@<TRIPOS>BOND
     1    1    2 2  
     2    1    6 1  
     3    1    7 1  
     4    2    3 1  
     5    2   23 1  
     6    3    4 2  
     7    4    5 1  
     8    4    8 1  
     9    5    6 2  
    10    6    9 1  
    11    7   10 2  
    12    7   14 1  
    13    8   16 1  
    14    8   20 1  
    15    9   24 1  
    16    9   25 1  
    17   10   11 1  
    18   10   26 1  
    19   11   12 2  
    20   11   27 1  
    21   12   13 1  
    22   12   28 1  
    23   13   14 2  
    24   13   15 1  
    25   14   29 1  
    26   16   17 1  
    27   16   30 1  
    28   16   31 1  
    29   17   18 1  
    30   17   21 1  
    31   17   32 1  
    32   18   19 1  
    33   18   33 1  
    34   18   34 1  
    35   19   20 1  
    36   19   22 1  
    37   19   35 1  
    38   20   36 1  
    39   20   37 1  
    40   21   38 1  
    41   21   39 1  
    42   21   40 1  
    43   22   41 1  
    44   22   42 1  
    45   22   43 1  
