@<TRIPOS>MOLECULE
cmp_ligand
43   45    1
SMALL
USER_CHARGES


@<TRIPOS>ATOM
      1 C1         21.3090   40.7290    4.4970 C.ar      1 UNK         0.0000 
      2 N1         21.3950   41.7780    3.6360 N.ar      1 UNK         0.0000 
      3 C2         22.5920   42.0110    3.0400 C.ar      1 UNK         0.0000 
      4 C3         23.7130   41.1940    3.2650 C.ar      1 UNK         0.0000 
      5 N2         23.6130   40.1440    4.1300 N.ar      1 UNK         0.0000 
      6 C4         22.4290   39.9150    4.7480 C.ar      1 UNK         0.0000 
      7 C5         19.9700   40.5280    5.1130 C.ar      1 UNK         0.0000 
      8 N3         22.3870   38.8310    5.6200 N.pl3     1 UNK         0.0000 
      9 N4         24.9490   41.4090    2.6540 N.pl3     1 UNK         0.0000 
     10 C6         25.2640   42.5010    1.7210 C.3       1 UNK         0.0000 
     11 C7         26.5110   43.2680    2.2070 C.3       1 UNK         0.0000 
     12 C8         27.7430   42.3410    2.3590 C.3       1 UNK         0.0000 
     13 C9         27.3690   41.0560    3.1340 C.3       1 UNK         0.0000 
     14 C10        26.0540   40.4310    2.6230 C.3       1 UNK         0.0000 
     15 C11        18.8890   40.1740    4.2980 C.ar      1 UNK         0.0000 
     16 C12        17.6190   39.9850    4.8360 C.ar      1 UNK         0.0000 
     17 C13        17.4120   40.1380    6.2040 C.ar      1 UNK         0.0000 
     18 C14        18.4750   40.4910    7.0320 C.ar      1 UNK         0.0000 
     19 C15        19.7490   40.6940    6.4910 C.ar      1 UNK         0.0000 
     20 CL1        21.0310   41.2130    7.5260 Cl        1 UNK         0.0000 
     21 CL2        18.1860   40.6960    8.7210 Cl        1 UNK         0.0000 
     22 C16        28.4200   42.0510    1.0030 C.3       1 UNK         0.0000 
     23 N5         28.7730   43.0830    3.2220 N.4       1 UNK         0.0000 
     24 H2         22.7050   42.8470    2.3660 H         1 UNK         0.0000 
     25 H31        23.2150   38.2730    5.7720 H         1 UNK         0.0000 
     26 H32        21.5290   38.6030    6.1010 H         1 UNK         0.0000 
     27 H61        24.4170   43.1850    1.6630 H         1 UNK         0.0000 
     28 H62        25.4550   42.0880    0.7300 H         1 UNK         0.0000 
     29 H71        26.2940   43.7430    3.1640 H         1 UNK         0.0000 
     30 H72        26.7430   44.0670    1.5020 H         1 UNK         0.0000 
     31 H91        27.2720   41.2880    4.1950 H         1 UNK         0.0000 
     32 H92        28.1760   40.3290    3.0410 H         1 UNK         0.0000 
     33 H101       26.1950   40.0750    1.6030 H         1 UNK         0.0000 
     34 H102       25.7960   39.5720    3.2420 H         1 UNK         0.0000 
     35 H11        19.0330   40.0450    3.2360 H         1 UNK         0.0000 
     36 H12        16.7940   39.7190    4.1920 H         1 UNK         0.0000 
     37 H13        16.4290   39.9820    6.6220 H         1 UNK         0.0000 
     38 H161       29.2790   41.3980    1.1580 H         1 UNK         0.0000 
     39 H162       27.7080   41.5630    0.3380 H         1 UNK         0.0000 
     40 H163       28.7530   42.9870    0.5550 H         1 UNK         0.0000 
     41 H51        29.5920   42.5030    3.3410 H         1 UNK         0.0000 
     42 H52        29.0350   43.9460    2.7670 H         1 UNK         0.0000 
     43 H53        28.3720   43.2870    4.1260 H         1 UNK         0.0000 
@<TRIPOS>BOND
     1    1    2 ar   
     2    1    6 ar   
     3    1    7 1    
     4    2    3 ar   
     5    3    4 ar   
     6    3   24 1    
     7    4    5 ar   
     8    4    9 1    
     9    5    6 ar   
    10    6    8 1    
    11    7   15 ar   
    12    7   19 ar   
    13    8   25 1    
    14    8   26 1    
    15    9   10 1    
    16    9   14 1    
    17   10   11 1    
    18   10   27 1    
    19   10   28 1    
    20   11   12 1    
    21   11   29 1    
    22   11   30 1    
    23   12   13 1    
    24   12   22 1    
    25   12   23 1    
    26   13   14 1    
    27   13   31 1    
    28   13   32 1    
    29   14   33 1    
    30   14   34 1    
    31   15   16 ar   
    32   15   35 1    
    33   16   17 ar   
    34   16   36 1    
    35   17   18 ar   
    36   17   37 1    
    37   18   19 ar   
    38   18   21 1    
    39   19   20 1    
    40   22   38 1    
    41   22   39 1    
    42   22   40 1    
    43   23   41 1    
    44   23   42 1    
    45   23   43 1    
@<TRIPOS>SUBSTRUCTURE
     1 UNK         1 GROUP             0       ****    0 ROOT    
