#

@<TRIPOS>MOLECULE
cmp_ligand
 43 45 0 0 0
SMALL
USER_CHARGES

@<TRIPOS>ATOM
      1 C1         21.7020   40.7240    4.3130 C.ar      1 LIG         0.0000
      2 C2         22.1420   41.8060    3.5360 C.ar      1 LIG         0.0000
      3 N1         23.4280   41.9530    3.1220 N.ar      1 LIG         0.0000
      4 C3         24.2840   40.9490    3.4490 C.ar      1 LIG         0.0000
      5 N2         23.9550   39.8520    4.1720 N.ar      1 LIG         0.0000
      6 C4         22.6810   39.7600    4.6130 C.ar      1 LIG         0.0000
      7 C5         20.2800   40.6020    4.7480 C.ar      1 LIG         0.0000
      8 N3         25.6200   41.0390    3.0890 N.pl3     1 LIG         0.0000
      9 N4         22.4000   38.6320    5.3760 N.pl3     1 LIG         0.0000
     10 C6         19.2920   40.3990    3.7800 C.ar      1 LIG         0.0000
     11 C7         17.9610   40.1980    4.1400 C.ar      1 LIG         0.0000
     12 C8         17.5930   40.2330    5.4810 C.ar      1 LIG         0.0000
     13 C9         18.5530   40.4730    6.4630 C.ar      1 LIG         0.0000
     14 C10        19.8940   40.6570    6.1010 C.ar      1 LIG         0.0000
     15 CL1        21.0600   40.9980    7.3310 Cl        1 LIG         0.0000
     16 CL2        18.0560   40.5480    8.1170 Cl        1 LIG         0.0000
     17 C11        26.3480   42.3120    2.9670 C.3       1 LIG         0.0000
     18 C12        27.8220   42.0940    3.3990 C.3       1 LIG         0.0000
     19 N5         28.4540   41.0570    2.4590 N.4       1 LIG         0.0000
     20 C13        27.6590   39.7450    2.4260 C.3       1 LIG         0.0000
     21 C14        26.1740   40.0610    2.1380 C.3       1 LIG         0.0000
     22 C15        28.7310   43.3250    3.3390 C.3       1 LIG         0.0000
     23 C16        28.3260   38.8470    1.3740 C.3       1 LIG         0.0000
     24 H2         21.4440   42.5760    3.2380 H         1 LIG         0.0000
     25 H41        23.1280   37.9600    5.5710 H         1 LIG         0.0000
     26 H42        21.4670   38.4840    5.7340 H         1 LIG         0.0000
     27 H6         19.5550   40.3960    2.7330 H         1 LIG         0.0000
     28 H7         17.2180   40.0160    3.3780 H         1 LIG         0.0000
     29 H8         16.5630   40.0740    5.7630 H         1 LIG         0.0000
     30 H111       25.8870   43.0570    3.6150 H         1 LIG         0.0000
     31 H112       26.3190   42.6490    1.9310 H         1 LIG         0.0000
     32 H12        27.8350   41.7000    4.4150 H         1 LIG         0.0000
     33 H51        29.4010   40.8690    2.7550 H         1 LIG         0.0000
     34 H52        28.5100   41.4400    1.5260 H         1 LIG         0.0000
     35 H13        27.7340   39.2620    3.4000 H         1 LIG         0.0000
     36 H141       26.0750   40.4460    1.1230 H         1 LIG         0.0000
     37 H142       25.5920   39.1400    2.1840 H         1 LIG         0.0000
     38 H151       29.7350   43.0520    3.6620 H         1 LIG         0.0000
     39 H152       28.7680   43.7000    2.3160 H         1 LIG         0.0000
     40 H153       28.3360   44.1010    3.9950 H         1 LIG         0.0000
     41 H161       27.7930   37.8980    1.3150 H         1 LIG         0.0000
     42 H162       28.2970   39.3400    0.4030 H         1 LIG         0.0000
     43 H163       29.3630   38.6630    1.6570 H         1 LIG         0.0000
@<TRIPOS>BOND
     1    1    2 2  
     2    1    6 1  
     3    1    7 1  
     4    2    3 1  
     5    2   24 1  
     6    3    4 2  
     7    4    5 1  
     8    4    8 1  
     9    5    6 2  
    10    6    9 1  
    11    7   10 2  
    12    7   14 1  
    13    8   17 1  
    14    8   21 1  
    15    9   25 1  
    16    9   26 1  
    17   10   11 1  
    18   10   27 1  
    19   11   12 2  
    20   11   28 1  
    21   12   13 1  
    22   12   29 1  
    23   13   14 2  
    24   13   16 1  
    25   14   15 1  
    26   17   18 1  
    27   17   30 1  
    28   17   31 1  
    29   18   19 1  
    30   18   22 1  
    31   18   32 1  
    32   19   20 1  
    33   19   33 1  
    34   19   34 1  
    35   20   21 1  
    36   20   23 1  
    37   20   35 1  
    38   21   36 1  
    39   21   37 1  
    40   22   38 1  
    41   22   39 1  
    42   22   40 1  
    43   23   41 1  
    44   23   42 1  
    45   23   43 1  
