#

@<TRIPOS>MOLECULE
cmp_ligand
 46 48 0 0 0
SMALL
USER_CHARGES

@<TRIPOS>ATOM
      1 C1         21.3360   40.6130    4.2720 C.ar      1 LIG         0.0000
      2 N1         22.3610   39.8280    4.7060 N.ar      1 LIG         0.0000
      3 C2         23.5920   40.0370    4.1720 C.ar      1 LIG         0.0000
      4 C3         23.8340   41.0420    3.2240 C.ar      1 LIG         0.0000
      5 N2         22.8020   41.8200    2.8020 N.ar      1 LIG         0.0000
      6 C4         21.5530   41.5960    3.2860 C.ar      1 LIG         0.0000
      7 C5         20.0090   40.3800    4.9200 C.ar      1 LIG         0.0000
      8 N3         20.4860   42.3730    2.8000 N.pl3     1 LIG         0.0000
      9 N4         25.0970   41.3230    2.7030 N.pl3     1 LIG         0.0000
     10 C6         25.3790   42.4170    1.7560 C.3       1 LIG         0.0000
     11 C7         26.6260   43.2010    2.2070 C.3       1 LIG         0.0000
     12 C8         27.8700   42.2900    2.3450 C.3       1 LIG         0.0000
     13 C9         27.5260   41.0010    3.1310 C.3       1 LIG         0.0000
     14 C10        26.2090   40.3600    2.6430 C.3       1 LIG         0.0000
     15 C11        18.9050   40.0550    4.1240 C.ar      1 LIG         0.0000
     16 C12        17.6370   39.9000    4.6750 C.ar      1 LIG         0.0000
     17 C13        17.4520   40.0580    6.0430 C.ar      1 LIG         0.0000
     18 C14        18.5320   40.3800    6.8600 C.ar      1 LIG         0.0000
     19 C15        19.8070   40.5460    6.3040 C.ar      1 LIG         0.0000
     20 CL1        21.1070   41.0310    7.3330 Cl        1 LIG         0.0000
     21 CL2        18.2570   40.6060    8.5500 Cl        1 LIG         0.0000
     22 C16        28.5320   42.0050    0.9800 C.3       1 LIG         0.0000
     23 N5         28.9000   43.0540    3.1900 N.4       1 LIG         0.0000
     24 C17        20.6850   43.2940    1.6890 C.3       1 LIG         0.0000
     25 H2         24.4240   39.4200    4.4750 H         1 LIG         0.0000
     26 HN3        19.5710   42.2950    3.2200 H         1 LIG         0.0000
     27 H61        24.5230   43.0900    1.7140 H         1 LIG         0.0000
     28 H62        25.5500   42.0020    0.7630 H         1 LIG         0.0000
     29 H71        26.4240   43.6850    3.1620 H         1 LIG         0.0000
     30 H72        26.8350   43.9940    1.4890 H         1 LIG         0.0000
     31 H91        27.4450   41.2340    4.1920 H         1 LIG         0.0000
     32 H92        28.3400   40.2840    3.0240 H         1 LIG         0.0000
     33 H101       26.3330   40.0120    1.6180 H         1 LIG         0.0000
     34 H102       25.9740   39.4960    3.2650 H         1 LIG         0.0000
     35 H11        19.0270   39.9200    3.0590 H         1 LIG         0.0000
     36 H12        16.7990   39.6560    4.0400 H         1 LIG         0.0000
     37 H13        16.4690   39.9310    6.4730 H         1 LIG         0.0000
     38 H161       29.4010   41.3630    1.1250 H         1 LIG         0.0000
     39 H162       27.8170   41.5070    0.3260 H         1 LIG         0.0000
     40 H163       28.8470   42.9450    0.5260 H         1 LIG         0.0000
     41 H51        29.7290   42.4890    3.3020 H         1 LIG         0.0000
     42 H52        29.1420   43.9180    2.7260 H         1 LIG         0.0000
     43 H53        28.5070   43.2580    4.0970 H         1 LIG         0.0000
     44 H171       19.7460   43.7990    1.4630 H         1 LIG         0.0000
     45 H172       21.4380   44.0330    1.9610 H         1 LIG         0.0000
     46 H173       21.0200   42.7400    0.8120 H         1 LIG         0.0000
@<TRIPOS>BOND
     1    1    2 2  
     2    1    6 1  
     3    1    7 1  
     4    2    3 1  
     5    3    4 2  
     6    3   25 1  
     7    4    5 1  
     8    4    9 1  
     9    5    6 2  
    10    6    8 1  
    11    7   15 2  
    12    7   19 1  
    13    8   24 1  
    14    8   26 1  
    15    9   10 1  
    16    9   14 1  
    17   10   11 1  
    18   10   27 1  
    19   10   28 1  
    20   11   12 1  
    21   11   29 1  
    22   11   30 1  
    23   12   13 1  
    24   12   22 1  
    25   12   23 1  
    26   13   14 1  
    27   13   31 1  
    28   13   32 1  
    29   14   33 1  
    30   14   34 1  
    31   15   16 1  
    32   15   35 1  
    33   16   17 2  
    34   16   36 1  
    35   17   18 1  
    36   17   37 1  
    37   18   19 2  
    38   18   21 1  
    39   19   20 1  
    40   22   38 1  
    41   22   39 1  
    42   22   40 1  
    43   23   41 1  
    44   23   42 1  
    45   23   43 1  
    46   24   44 1  
    47   24   45 1  
    48   24   46 1  
