#

@<TRIPOS>MOLECULE
cmp_ligand
 43 45 0 0 0
SMALL
USER_CHARGES

@<TRIPOS>ATOM
      1 C1         21.3380   40.6550    4.3820 C.ar      1 LIG         0.0000
      2 C2         21.5510   41.6680    3.4410 C.ar      1 LIG         0.0000
      3 N1         22.7570   41.9200    2.8850 N.ar      1 LIG         0.0000
      4 C3         23.7880   41.1100    3.2450 C.ar      1 LIG         0.0000
      5 N2         23.6790   40.0830    4.1310 N.ar      1 LIG         0.0000
      6 C4         22.4660   39.8710    4.6940 C.ar      1 LIG         0.0000
      7 C5         19.9830   40.4600    4.9690 C.ar      1 LIG         0.0000
      8 N3         25.0410   41.3730    2.6940 N.pl3     1 LIG         0.0000
      9 N4         22.3980   38.8090    5.5900 N.pl3     1 LIG         0.0000
     10 C6         18.9170   40.1470    4.1190 C.ar      1 LIG         0.0000
     11 C7         17.6270   39.9860    4.6130 C.ar      1 LIG         0.0000
     12 C8         17.3810   40.1400    5.9730 C.ar      1 LIG         0.0000
     13 C9         18.4240   40.4620    6.8380 C.ar      1 LIG         0.0000
     14 C10        19.7220   40.6300    6.3410 C.ar      1 LIG         0.0000
     15 CL1        20.9790   41.1210    7.4220 Cl        1 LIG         0.0000
     16 CL2        18.0790   40.6860    8.5140 Cl        1 LIG         0.0000
     17 C11        25.3290   42.4780    1.7650 C.3       1 LIG         0.0000
     18 C12        26.5740   43.2520    2.2400 C.3       1 LIG         0.0000
     19 C13        27.8160   42.3350    2.3640 C.3       1 LIG         0.0000
     20 C14        27.4680   41.0370    3.1320 C.3       1 LIG         0.0000
     21 C15        26.1500   40.4040    2.6370 C.3       1 LIG         0.0000
     22 C16        28.4750   42.0660    0.9950 C.3       1 LIG         0.0000
     23 N5         28.8500   43.0800    3.2190 N.4       1 LIG         0.0000
     24 H2         20.7290   42.2930    3.1250 H         1 LIG         0.0000
     25 H41        23.2250   38.2660    5.7930 H         1 LIG         0.0000
     26 H42        21.5220   38.5810    6.0380 H         1 LIG         0.0000
     27 H6         19.0890   40.0270    3.0600 H         1 LIG         0.0000
     28 H7         16.8180   39.7420    3.9400 H         1 LIG         0.0000
     29 H8         16.3800   40.0100    6.3590 H         1 LIG         0.0000
     30 H111       24.4750   43.1540    1.7280 H         1 LIG         0.0000
     31 H112       25.5100   42.0770    0.7680 H         1 LIG         0.0000
     32 H121       26.3670   43.7150    3.2040 H         1 LIG         0.0000
     33 H122       26.7880   44.0590    1.5390 H         1 LIG         0.0000
     34 H141       27.3870   41.2560    4.1960 H         1 LIG         0.0000
     35 H142       28.2800   40.3190    3.0170 H         1 LIG         0.0000
     36 H151       26.2760   40.0580    1.6110 H         1 LIG         0.0000
     37 H152       25.9080   39.5390    3.2540 H         1 LIG         0.0000
     38 H161       29.3410   41.4190    1.1300 H         1 LIG         0.0000
     39 H162       27.7570   41.5790    0.3350 H         1 LIG         0.0000
     40 H163       28.7920   43.0100    0.5530 H         1 LIG         0.0000
     41 H51        29.6770   42.5090    3.3210 H         1 LIG         0.0000
     42 H52        29.0960   43.9500    2.7680 H         1 LIG         0.0000
     43 H53        28.4590   43.2720    4.1300 H         1 LIG         0.0000
@<TRIPOS>BOND
     1    1    2 2  
     2    1    6 1  
     3    1    7 1  
     4    2    3 1  
     5    2   24 1  
     6    3    4 2  
     7    4    5 1  
     8    4    8 1  
     9    5    6 2  
    10    6    9 1  
    11    7   10 2  
    12    7   14 1  
    13    8   17 1  
    14    8   21 1  
    15    9   25 1  
    16    9   26 1  
    17   10   11 1  
    18   10   27 1  
    19   11   12 2  
    20   11   28 1  
    21   12   13 1  
    22   12   29 1  
    23   13   14 2  
    24   13   16 1  
    25   14   15 1  
    26   17   18 1  
    27   17   30 1  
    28   17   31 1  
    29   18   19 1  
    30   18   32 1  
    31   18   33 1  
    32   19   20 1  
    33   19   22 1  
    34   19   23 1  
    35   20   21 1  
    36   20   34 1  
    37   20   35 1  
    38   21   36 1  
    39   21   37 1  
    40   22   38 1  
    41   22   39 1  
    42   22   40 1  
    43   23   41 1  
    44   23   42 1  
    45   23   43 1  
