#

@<TRIPOS>MOLECULE
cmp_ligand
 57 60 0 0 0
SMALL
USER_CHARGES

@<TRIPOS>ATOM
      1 C1         21.4760   40.4750    4.9680 C.2       1 LIG         0.0000
      2 S1         20.0470   40.4940    6.0600 S.3       1 LIG         0.0000
      3 C2         18.5790   40.4730    5.0380 C.ar      1 LIG         0.0000
      4 C3         17.3180   40.8010    5.5780 C.ar      1 LIG         0.0000
      5 N1         16.1970   40.8780    4.8040 N.ar      1 LIG         0.0000
      6 C4         16.3010   40.6100    3.4810 C.ar      1 LIG         0.0000
      7 C5         17.4950   40.2230    2.8870 C.ar      1 LIG         0.0000
      8 C6         18.6390   40.1380    3.6800 C.ar      1 LIG         0.0000
      9 C7         21.6430   41.4900    3.9080 C.2       1 LIG         0.0000
     10 N2         22.8400   41.4600    3.2050 N.am      1 LIG         0.0000
     11 C8         23.8110   40.4880    3.4600 C.2       1 LIG         0.0000
     12 C9         23.6470   39.5560    4.4200 C.2       1 LIG         0.0000
     13 C10        22.4350   39.5550    5.1990 C.2       1 LIG         0.0000
     14 C11        23.0050   42.5320    2.2040 C.3       1 LIG         0.0000
     15 O1         20.7510   42.3090    3.6780 O.2       1 LIG         0.0000
     16 N3         24.9720   40.5500    2.6910 N.pl3     1 LIG         0.0000
     17 C12        26.3230   40.4630    3.2570 C.3       1 LIG         0.0000
     18 C13        27.2020   41.5860    2.6650 C.3       1 LIG         0.0000
     19 C14        27.2690   41.5690    1.1090 C.3       1 LIG         0.0000
     20 C15        25.8280   41.4090    0.5410 C.3       1 LIG         0.0000
     21 C16        25.0030   40.3050    1.2420 C.3       1 LIG         0.0000
     22 C17        27.8880   42.8730    0.5910 C.3       1 LIG         0.0000
     23 O2         28.2540   42.5330   -0.7380 O.3       1 LIG         0.0000
     24 C18        28.9070   41.2690   -0.7020 C.3       1 LIG         0.0000
     25 C19        28.2260   40.5260    0.4770 C.3       1 LIG         0.0000
     26 N4         29.1540   39.7380    1.4140 N.4       1 LIG         0.0000
     27 C20        30.4250   41.5200   -0.5950 C.3       1 LIG         0.0000
     28 C21        17.0970   41.0850    7.0700 C.3       1 LIG         0.0000
     29 F1         17.5940   40.0910    7.8070 F         1 LIG         0.0000
     30 F2         17.7050   42.2200    7.4120 F         1 LIG         0.0000
     31 F3         15.8030   41.2060    7.3780 F         1 LIG         0.0000
     32 H4         15.4340   40.6950    2.8430 H         1 LIG         0.0000
     33 H5         17.5240   39.9940    1.8320 H         1 LIG         0.0000
     34 H6         19.5720   39.8130    3.2440 H         1 LIG         0.0000
     35 H9         24.4180   38.8220    4.5970 H         1 LIG         0.0000
     36 H10        22.2970   38.8130    5.9710 H         1 LIG         0.0000
     37 H111       23.9700   42.4220    1.7090 H         1 LIG         0.0000
     38 H112       22.2080   42.4630    1.4630 H         1 LIG         0.0000
     39 H113       22.9580   43.5020    2.6980 H         1 LIG         0.0000
     40 H121       26.7580   39.4940    3.0110 H         1 LIG         0.0000
     41 H122       26.2710   40.5750    4.3400 H         1 LIG         0.0000
     42 H131       28.2100   41.5090    3.0720 H         1 LIG         0.0000
     43 H132       26.8270   42.5530    3.0000 H         1 LIG         0.0000
     44 H151       25.8820   41.1980   -0.5260 H         1 LIG         0.0000
     45 H152       25.3010   42.3600    0.6210 H         1 LIG         0.0000
     46 H161       23.9860   40.3080    0.8510 H         1 LIG         0.0000
     47 H162       25.4580   39.3340    1.0480 H         1 LIG         0.0000
     48 H171       28.7880   43.0970    1.1640 H         1 LIG         0.0000
     49 H172       27.1230   43.6490    0.5650 H         1 LIG         0.0000
     50 H18        28.6980   40.7330   -1.6280 H         1 LIG         0.0000
     51 H19        27.5780   39.7800    0.0150 H         1 LIG         0.0000
     52 H41        29.7180   39.0990    0.8720 H         1 LIG         0.0000
     53 H42        29.7570   40.3800    1.9100 H         1 LIG         0.0000
     54 H43        28.6000   39.2170    2.0780 H         1 LIG         0.0000
     55 H201       30.9510   40.5660   -0.5660 H         1 LIG         0.0000
     56 H202       30.7600   42.0930   -1.4600 H         1 LIG         0.0000
     57 H203       30.6380   42.0800    0.3160 H         1 LIG         0.0000
@<TRIPOS>BOND
     1    1    2 1  
     2    1    9 1  
     3    1   13 2  
     4    2    3 1  
     5    3    4 2  
     6    3    8 1  
     7    4   28 1  
     8    4    5 1  
     9    5    6 2  
    10    6    7 1  
    11    6   32 1  
    12    7    8 2  
    13    7   33 1  
    14    8   34 1  
    15    9   10 am 
    16    9   15 2  
    17   10   11 1  
    18   10   14 1  
    19   11   12 2  
    20   11   16 1  
    21   12   13 1  
    22   12   35 1  
    23   13   36 1  
    24   14   37 1  
    25   14   38 1  
    26   14   39 1  
    27   16   17 1  
    28   16   21 1  
    29   17   18 1  
    30   17   40 1  
    31   17   41 1  
    32   18   19 1  
    33   18   42 1  
    34   18   43 1  
    35   19   20 1  
    36   19   22 1  
    37   19   25 1  
    38   20   21 1  
    39   20   44 1  
    40   20   45 1  
    41   21   46 1  
    42   21   47 1  
    43   22   23 1  
    44   22   48 1  
    45   22   49 1  
    46   23   24 1  
    47   24   25 1  
    48   24   27 1  
    49   24   50 1  
    50   25   26 1  
    51   25   51 1  
    52   26   52 1  
    53   26   53 1  
    54   26   54 1  
    55   27   55 1  
    56   27   56 1  
    57   27   57 1  
    58   28   29 1  
    59   28   30 1  
    60   28   31 1  
