@<TRIPOS>MOLECULE
cmp_ligand
59   62    1
SMALL
USER_CHARGES


@<TRIPOS>ATOM
      1 C1         21.5320   40.7710    4.6750 C.ar      1 UNK         0.0000 
      2 S1         20.1010   40.8720    5.7780 S.3       1 UNK         0.0000 
      3 C2         18.6160   40.6830    4.8030 C.ar      1 UNK         0.0000 
      4 C3         17.3450   40.8320    5.3990 C.ar      1 UNK         0.0000 
      5 N1         16.1950   40.8070    4.6650 N.ar      1 UNK         0.0000 
      6 C4         16.2810   40.6050    3.3290 C.ar      1 UNK         0.0000 
      7 C5         17.4900   40.3840    2.6810 C.ar      1 UNK         0.0000 
      8 C6         18.6640   40.4140    3.4310 C.ar      1 UNK         0.0000 
      9 C7         21.6850   41.7660    3.5880 C.ar      1 UNK         0.0000 
     10 N2         22.8450   41.6860    2.8340 N.pl3     1 UNK         0.0000 
     11 C8         23.8360   40.7490    3.1310 C.ar      1 UNK         0.0000 
     12 C9         23.6920   39.8510    4.1240 C.ar      1 UNK         0.0000 
     13 C10        22.4910   39.8410    4.9220 C.ar      1 UNK         0.0000 
     14 N3         22.3930   38.9250    5.9370 N.pl3     1 UNK         0.0000 
     15 C11        22.9490   42.6570    1.7240 C.3       1 UNK         0.0000 
     16 O1         20.8060   42.6070    3.3810 O.2       1 UNK         0.0000 
     17 N4         25.0170   40.8280    2.4000 N.pl3     1 UNK         0.0000 
     18 C12        26.3390   40.7560    3.0380 C.3       1 UNK         0.0000 
     19 C13        27.2720   41.8100    2.4100 C.3       1 UNK         0.0000 
     20 C14        27.4030   41.6870    0.8640 C.3       1 UNK         0.0000 
     21 C15        25.9820   41.5340    0.2460 C.3       1 UNK         0.0000 
     22 C16        25.1060   40.4880    0.9740 C.3       1 UNK         0.0000 
     23 C17        28.0830   42.9410    0.3050 C.3       1 UNK         0.0000 
     24 O2         28.5470   42.5100   -0.9650 O.3       1 UNK         0.0000 
     25 C18        29.1780   41.2460   -0.7870 C.3       1 UNK         0.0000 
     26 C19        28.3560   40.5790    0.3460 C.3       1 UNK         0.0000 
     27 N5         29.1530   39.7710    1.3810 N.4       1 UNK         0.0000 
     28 C20        30.6790   41.4860   -0.5200 C.3       1 UNK         0.0000 
     29 C21        17.1490   41.0180    6.9100 C.3       1 UNK         0.0000 
     30 F1         15.8620   40.9750    7.2650 F         1 UNK         0.0000 
     31 F2         17.7800   40.0530    7.5830 F         1 UNK         0.0000 
     32 F3         17.6370   42.1980    7.2920 F         1 UNK         0.0000 
     33 H4         15.3870   40.6110    2.7240 H         1 UNK         0.0000 
     34 H5         17.5060   40.1940    1.6180 H         1 UNK         0.0000 
     35 H6         19.6130   40.2300    2.9500 H         1 UNK         0.0000 
     36 H9         24.4770   39.1370    4.3230 H         1 UNK         0.0000 
     37 H31        23.1310   38.2520    6.0830 H         1 UNK         0.0000 
     38 H32        21.5810   38.9240    6.5380 H         1 UNK         0.0000 
     39 H111       23.8930   42.5090    1.1980 H         1 UNK         0.0000 
     40 H112       22.1210   42.5090    1.0320 H         1 UNK         0.0000 
     41 H113       22.9120   43.6710    2.1230 H         1 UNK         0.0000 
     42 H121       26.7600   39.7620    2.8870 H         1 UNK         0.0000 
     43 H122       26.2380   40.9500    4.1060 H         1 UNK         0.0000 
     44 H131       28.2610   41.7350    2.8640 H         1 UNK         0.0000 
     45 H132       26.9140   42.8080    2.6640 H         1 UNK         0.0000 
     46 H151       26.0720   41.2610   -0.8050 H         1 UNK         0.0000 
     47 H152       25.4770   42.5000    0.2570 H         1 UNK         0.0000 
     48 H161       24.1070   40.4850    0.5380 H         1 UNK         0.0000 
     49 H162       25.5520   39.5000    0.8640 H         1 UNK         0.0000 
     50 H171       28.9370   43.1970    0.9320 H         1 UNK         0.0000 
     51 H172       27.3360   43.7240    0.1680 H         1 UNK         0.0000 
     52 H18        29.0670   40.6610   -1.7000 H         1 UNK         0.0000 
     53 H19        27.7120   39.8550   -0.1530 H         1 UNK         0.0000 
     54 H51        29.7280   39.0900    0.9070 H         1 UNK         0.0000 
     55 H52        29.7420   40.3940    1.9150 H         1 UNK         0.0000 
     56 H53        28.5140   39.2970    2.0030 H         1 UNK         0.0000 
     57 H201       31.1810   40.5290   -0.3810 H         1 UNK         0.0000 
     58 H202       31.1210   42.0070   -1.3690 H         1 UNK         0.0000 
     59 H203       30.7970   42.0920    0.3790 H         1 UNK         0.0000 
@<TRIPOS>BOND
     1    1    2 1    
     2    1    9 ar   
     3    1   13 ar   
     4    2    3 1    
     5    3    4 ar   
     6    3    8 ar   
     7    4   29 1    
     8    4    5 ar   
     9    5    6 ar   
    10    6    7 ar   
    11    6   33 1    
    12    7    8 ar   
    13    7   34 1    
    14    8   35 1    
    15    9   10 ar   
    16    9   16 2    
    17   10   11 ar   
    18   10   15 1    
    19   11   12 ar   
    20   11   17 1    
    21   12   13 ar   
    22   12   36 1    
    23   13   14 1    
    24   14   37 1    
    25   14   38 1    
    26   15   39 1    
    27   15   40 1    
    28   15   41 1    
    29   17   18 1    
    30   17   22 1    
    31   18   19 1    
    32   18   42 1    
    33   18   43 1    
    34   19   20 1    
    35   19   44 1    
    36   19   45 1    
    37   20   21 1    
    38   20   23 1    
    39   20   26 1    
    40   21   22 1    
    41   21   46 1    
    42   21   47 1    
    43   22   48 1    
    44   22   49 1    
    45   23   24 1    
    46   23   50 1    
    47   23   51 1    
    48   24   25 1    
    49   25   26 1    
    50   25   28 1    
    51   25   52 1    
    52   26   27 1    
    53   26   53 1    
    54   27   54 1    
    55   27   55 1    
    56   27   56 1    
    57   28   57 1    
    58   28   58 1    
    59   28   59 1    
    60   29   30 1    
    61   29   31 1    
    62   29   32 1    
@<TRIPOS>SUBSTRUCTURE
     1 UNK         1 GROUP             0       ****    0 ROOT    
